.SUBCKT inv1 A Y VDD VSS
M1 Y A VSS VSS nch L=1.2u W=3u M=1
M2 Y A VDD VDD pch L=0.4u W=3u M=1
.ENDS
.SUBCKT BIAS1 IIN VH VL VDD VSS
M1 VL VL VSS VSS nch L=3u W=3u M=10
M2 VH IIN VL VSS nch L=1u W=3u M=10
M3 VH VH VDD VDD pch L=3u W=3.u M=10
C4 VH IIN 1pF
C5 VL N3 1pF
M6 IIN IIN N3 VSS nch L=1u W=3u M=10
M7 N3 VL VSS VSS nch L=3u W=3u M=10
.ENDS
.SUBCKT OP1 AOUT INN INP VL VDD VSS
M1 N4 INP N2 VSS nch L=1u W=1.2u M=10
M2 AOUT INN N2 VSS nch L=1u W=1.2u M=10
M3 N2 VL VSS VSS nch L=3u W=3u M=2
M4 AOUT N4 VDD VDD pch L=1u W=3u M=1
M5 N4 N4 VDD VDD pch L=1u W=3u M=1
.ENDS
.SUBCKT OP3 AOUT INN INP VL VM VDD VSS
C1 N3 N9 0.2pF
C2 N5 N9 0.2pF
M3 N1 N5 VSS VSS nch L=3u W=3u M=1
M4 AOUT VM N1 VSS nch L=1u W=3u M=1
M5 N9 VDD AOUT VSS nch L=1u W=1.2u M=1
M6 VDD N3 N5 VSS nch L=1u W=1.2u M=1
M7 N5 VL VSS VSS nch L=3u W=3u M=1
M8 N4 N3 VDD VDD pch L=1u W=3u M=1
M9 AOUT VM N4 VDD pch L=1u W=3u M=1
M10 AOUT VSS N9 VDD pch L=1u W=3u M=1
XOP1_1 N3 INP INN VL VDD VSS OP1
.ENDS
