.SUBCKT inv1 A Y VDD VSS
M1 Y A VSS VSS nch L=1.2u W=3u M=1
M2 Y A VDD VDD pch L=0.4u W=3u M=1
.ENDS
.SUBCKT inv4P A Y VDD1 VSS VSS1
M1 Y A VSS1 VSS nch L=1.2u W=12u M=1
M2 Y A VDD1 VDD1 pch L=0.4u W=12u M=1
.ENDS
.SUBCKT NANDP A B Y VDD1 VSS VSS1
M1 N3 B VSS1 VSS nch L=0.4u W=1.2u M=1
M2 Y A N3 VSS nch L=0.4u W=1.2u M=1
M3 Y A VDD1 VDD1 pch L=0.4u W=1.2u M=1
M4 Y B VDD1 VDD1 pch L=0.4u W=1.2u M=1
.ENDS
.SUBCKT inv1P A Y VDD1 VSS VSS1
M1 Y A VSS1 VSS nch L=1.2u W=3.u M=1
M2 Y A VDD1 VDD1 pch L=0.4u W=3.u M=1
.ENDS
.SUBCKT DFFP CK D Q QB RB VDD1 VSS VSS1
X1 CK ICKB VDD1 VSS VSS1 inv1P
X2 ICKB ICK VDD1 VSS VSS1 inv1P
X3 Q QB VDD1 VSS VSS1 inv1P
X4 ICK ICKB D IQ RB VDD1 VSS VSS1 LatchP
X5 ICKB ICK IQ Q RB VDD1 VSS VSS1 LatchP
.ENDS
.SUBCKT GINVP A CK CKB Y VDD1 VSS VSS1
M1 N3 CK VSS1 VSS nch L=1.2u W=1.2u M=1
M2 Y A N3 VSS nch L=1.2u W=1.2u M=1
M3 Y A N8 VDD1 pch L=0.4u W=1.2u M=1
M4 N8 CKB VDD1 VDD1 pch L=0.4u W=1.2u M=1
.ENDS
.SUBCKT LatchP CK CKB D Q RB VDD1 VSS VSS1
X1 D CKB CK IQ VDD1 VSS VSS1 GINVP
X2 IQ Q VDD1 VSS VSS1 inv1P
X3 Q CK CKB IQ VDD1 VSS VSS1 GINVP
M1 IQ RB VDD1 VDD1 pch L=0.4u W=3u M=1
.ENDS
.SUBCKT NORP A B Y VDD1 VSS VSS1
M1 Y B VSS1 VSS nch L=1.2u W=3u M=1
M2 Y A VSS1 VSS nch L=1.2u W=3u M=1
M3 Y A N3 VDD1 pch L=0.4u W=3u M=1
M4 N3 B VDD1 VDD1 pch L=0.4u W=3u M=1
.ENDS
.SUBCKT EDFFP CK D E Q QB RB VDD1 VSS VSS1
X1 CK N3 Q QB RB VDD1 VSS VSS1 DFFP
X2 N1 N2 N3 VDD1 VSS VSS1 NANDP
X3 Q N5 N1 VDD1 VSS VSS1 NANDP
X4 D E N2 VDD1 VSS VSS1 NANDP
X5 E N5 VDD1 VSS VSS1 inv1P
.ENDS
.SUBCKT NAND A B Y VDD VSS
M1 N2 B VSS VSS nch L=0.4u W=1.2u M=1
M2 Y A N2 VSS nch L=0.4u W=1.2u M=1
M3 Y A VDD VDD pch L=0.4u W=1.2u M=1
M4 Y B VDD VDD pch L=0.4u W=1.2u M=1
.ENDS
.SUBCKT PAD A B
RPAD A B 0.1
.ENDS
.SUBCKT PATHR A Y VSSE VDDE VSS
*M1 A N6 VSSE VSS nch L=0.5u W=400u
*M2 N6 N2 VSSE VSS nch L=50u W=25u
M3 Y N10 VSSE VSS nch L=0.35u W=20u
*M4 A N4 VDDE VDDE pch L=0.5u W=400u
*M5 N4 N1 VDDE VDDE pch L=50u W=25u
M6 Y N5 VDDE VDDE pch L=0.35u W=20u
*R7 N2 VDDE 1164 TC=0.0, 0.0
*R8 N1 VSSE 1192 TC=0.0, 0.0
R9 A Y 225.4 TC=0.0, 0.0
R10 N5 VDDE 1164 TC=0.0, 0.0
R11 N10 VSSE 1192 TC=0.0, 0.0
.ENDS
.SUBCKT PATH A B VSSE VDDE VSS
RPAD A B 0.1
*M1 A N3 VSSE VSS nch L=0.5u W=400u
*M2 N3 N4 VSSE VSS nch L=50u W=25u
*M3 A N1 VDDE VDDE pch L=0.5u W=400u
*M4 N1 N5 VDDE VDDE pch L=50u W=25u
*R5 N4 VDDE 1164 TC=0.0, 0.0
*R6 N5 VSSE 1192 TC=0.0, 0.0
.ENDS
.SUBCKT PDIN D Y VSS VSS0 VDD0
*M1 D N5 VSS0 VSS nch L=0.5u W=400u
*M2 N5 N8 VSS0 VSS nch L=50u W=25u
M3 N1 N2 VSS0 VSS nch L=0.35u W=20u
M4 N3 N1 VSS0 VSS nch L=0.35u W=1.5u
M5 Y N3 VSS0 VSS nch L=0.35u W=6u
*M6 D N9 VDD0 VDD0 pch L=0.5u W=400u
*M7 N9 N6 VDD0 VDD0 pch L=50u W=25u
M8 N1 N4 VDD0 VDD0 pch L=0.35u W=20u
M9 N3 N1 VDD0 VDD0 pch L=0.35u W=3u
M10 Y N3 VDD0 VDD0 pch L=0.35u W=12u
*R11 N8 VDD0 1164 TC=0.0, 0.0
*R12 N6 VSS0 1192 TC=0.0, 0.0
R13 D N1 225.4 TC=0.0, 0.0
R14 N4 VDD0 1164 TC=0.0, 0.0
R15 N2 VSS0 1192 TC=0.0, 0.0
.ENDS
.SUBCKT PDOUT DIN DOUT VSS VSS0 VDD0
*M1 DOUT N6 VSS0 VSS nch L=0.5u W=400u
*M2 N6 N5 VSS0 VSS nch L=50u W=25u
M3 N4 DIN VSS0 VSS nch L=0.35u W=6u
M4 DOUT N4 VSS0 VSS nch L=0.5u W=50u
*M5 DOUT N2 VDD0 VDD0 pch L=0.5u W=400u
*M6 N2 N1 VDD0 VDD0 pch L=50u W=25u
M7 N4 DIN VDD0 VDD0 pch L=0.35u W=10u
M8 DOUT N4 VDD0 VDD0 pch L=0.8u W=120u
*R9 N5 VDD0 1164 TC=0.0, 0.0
*R10 N1 VSS0 1192 TC=0.0, 0.0
.ENDS
.SUBCKT PDTHR D Y VSS VSS0 VDD0
*M1 D N2 VSS0 VSS nch L=0.5u W=400u
*M2 N2 N7 VSS0 VSS nch L=50u W=25u
M3 Y N1 VSS0 VSS nch L=0.35u W=20u
*M4 D N5 VDD0 VDD0 pch L=0.5u W=400u
*M5 N5 N4 VDD0 VDD0 pch L=50u W=25u
M6 Y N3 VDD0 VDD0 pch L=0.35u W=20u
*R7 N7 VDD0 1164 TC=0.0, 0.0
*R8 N4 VSS0 1192 TC=0.0, 0.0
R9 D Y 225.4 TC=0.0, 0.0
R10 N3 VDD0 1164 TC=0.0, 0.0
R11 N1 VSS0 1192 TC=0.0, 0.0
.ENDS
.SUBCKT PDTH D Y VSS VSS0 VDD0
RPAD D Y 0.1
*M1 D N3 VSS0 VSS nch L=0.5u W=400u
*M2 N3 N2 VSS0 VSS nch L=50u W=25u
*M3 D N4 VDD0 VDD0 pch L=0.5u W=400u
*M4 N4 N5 VDD0 VDD0 pch L=50u W=25u
*R5 N2 VDD0 1164 TC=0.0, 0.0
*R6 N5 VSS0 1192 TC=0.0, 0.0
.ENDS
.SUBCKT PVDD0 D VDD0 VSS0 VSS
RPAD D VDD0 0.1
*M1 VDD0 N1 VSS0 VSS nch L=0.5u W=400u
*M2 N1 N3 VSS0 VSS nch L=50u W=25u
*R3 N3 VDD0 1164 TC=0.0, 0.0
.ENDS
.SUBCKT PVDD1 D VDD1 VSS0 VSS
RPAD D VDD1 0.1
*M1 VDD1 N1 VSS0 VSS nch L=0.5u W=400u
*M2 N1 N3 VSS0 VSS nch L=50u W=25u
*R3 N3 VDD1 1164 TC=0.0, 0.0
.ENDS
.SUBCKT PVDDE D VDDE VSSE VSS
RPAD D VDDE 0.1
*M1 VDDE N1 VSSE VSS nch L=0.5u W=400u
*M2 N1 N3 VSSE VSS nch L=50u W=25u
*R3 N3 VDDE 1164 TC=0.0, 0.0
.ENDS
.SUBCKT PVDD D VDD VSSE VSS
RPAD D VDD 0.1
*M1 VDD N2 VSSE VSS nch L=0.5u W=400u
*M2 N2 N1 VSSE VSS nch L=50u W=25u
*R3 N1 VDD 1164 TC=0.0, 0.0
.ENDS
.SUBCKT PVSS0 D VSS0 VDD0
RPAD D VSS0 0.1
*M1 VSS0 N2 VDD0 VDD0 pch L=0.5u W=400u
*M2 N2 N3 VDD0 VDD0 pch L=50u W=25u
*R3 N3 VSS0 1192 TC=0.0, 0.0
.ENDS
.SUBCKT PVSS1 D VSS1 VDD0
RPAD D VSS1 0.1
*M1 VSS1 N2 VDD0 VDD0 pch L=0.5u W=400u
*M2 N2 N3 VDD0 VDD0 pch L=50u W=25u
*R3 N3 VSS1 1192 TC=0.0, 0.0
.ENDS
.SUBCKT PVSSE D VSSE VDDE
RPAD D VSSE 0.1
*M1 VSSE N2 VDDE VDDE pch L=0.5u W=400u
*M2 N2 N3 VDDE VDDE pch L=50u W=25u
*R3 N3 VSSE 1192 TC=0.0, 0.0
.ENDS
.SUBCKT PVSS D VSS VDDE
*M1 VSS N2 VDDE VDDE pch L=0.5u W=400u
*M2 N2 N1 VDDE VDDE pch L=50u W=25u
*R3 N1 VSS 1192 TC=0.0, 0.0
.ENDS
