.SUBCKT inv1 A Y VDD VSS
M1 Y A VSS VSS nch L=1.2u W=3u M=1
M2 Y A VDD VDD pch L=0.4u W=3u M=1
.ENDS
